#!/bin/sh
''''exec python -W ignore -- "$0" "$@" # '''

import os
import sys
import numpy as np
import matplotlib.ticker as ticker
import matplotlib.pyplot as plt
import pylab
from glob import glob
from os.path import abspath, join
from seisflows.plugins.solver_io.fortran_binary import _read
from seisflows.tools.tools import exists


def getcoords(dir,num=0):
    for names in getnames(dir,num):
        if exists(names):
            x, z = _read(names[0]), _read(names[1])
            return x, z
    else:
        print('Coordinate files not found.')
        sys.exit()


def meshplot(x, y, z):
    """ Plots values on 2D unstructured mesh
    """
    r = (max(x) - min(x))/(max(y) - min(y))
    rx = r/np.sqrt(1 + r**2)
    ry = 1/np.sqrt(1 + r**2)

    f = plt.figure(figsize=(10*rx, 10*ry))
    p = plt.tricontourf(x, y, z, 125, extend="both")
    plt.axis('image')
    return f, p


def getnames(dir,num=0):
    return [
        (abspath(join(dir, subdir, 'proc' + str(num).zfill(6) + '_x.bin')),
         abspath(join(dir, subdir, 'proc' + str(num).zfill(6) + '_z.bin'))) 
         for subdir in [
         '.',
         '../model', 
         '../output/model_init',
         '../../output/model_init',
         '../../../output/model_init',
         '../../../../output/model_init',
         ]]


msg = '''
%s\nmin, max: %f, %f
'''


if __name__ == '__main__':
    """ Plots data on 2-D unstructured mesh

    Reads mesh coordinates from first two columns of text file and data from
    subsequent columns, computes Delaunay triangulation, and plots data
    using matplotlib.

    In particular, can be used to plot kernels and models output from SPECFEM2D
    on unstructured GLL bases.
    """

    nproc=2
    dirname = sys.argv[1]
    par = sys.argv[2]
    #get coordinate vector
    x=np.array([])
    z=np.array([])
    for i in range(nproc):
      if (par == 'last'):
         x_temp, z_temp = getcoords('./model_init',i)
      else:
         x_temp, z_temp = getcoords(dirname,i)
      x=np.append(x,x_temp)
      z=np.append(z,z_temp)
    
    print('xshape = ', x.shape)
    print('zshape = ', z.shape)
    #get parameter to image vector
    v=np.array([])
    for i in range(nproc):
        if (par == 'last'):
	   #filename=dirname +'/'+'' + str(i).zfill(6) + '.bin'
	   filename=dirname +'/'+'proc' + str(i).zfill(6) + '_' + 'vp' + '_kernel.bin'
        else:
	   filename=dirname +'/'+'proc' + str(i).zfill(6) + '_' + par + '.bin'
        v= np.append(v,_read(filename))
    
    print('vshape = ', v.shape)
    w=v
#    w = v
    undersamp_fact = 25 
    w_undersamp = w[::undersamp_fact]
    #w_undersamp = w
    x_undersamp = x[::undersamp_fact]
    #x_undersamp = x
    z_undersamp = z[::undersamp_fact]
    #z_undersamp = z

    clip_fact=0.97
    minval = min(w_undersamp)
    maxval = max(w_undersamp)
    maxabs = max(abs(w_undersamp))
#    if par =='vp':
#       w_undersamp=np.clip(w_undersamp, minval*(1.0/clip_fact), maxval*clip_fact)
       #w=np.clip(v, 4273.232910, 4780.356445)
#    if par =='Qkappa':
#      w=np.clip(v,0.006667, 0.012500)
#       w=np.clip(v,0.001667, 0.003333)
    temp='jh ='
    print temp, maxval-minval
    print msg % (filename, minval, maxval)
    f, p = meshplot(x_undersamp, z_undersamp, w_undersamp) 
    plt.xticks( color = 'k', size = 18)
    plt.yticks( color = 'k', size = 18)
    ax = plt.axes()
    ax.xaxis.set_major_locator(ticker.MultipleLocator(0.05))
    ax.yaxis.set_major_locator(ticker.MultipleLocator(0.05))
    #ax.xaxis.set_minor_locator(ticker.MultipleLocator(0.025))
    #ax.xaxis.set_major_locator(ticker.MaxNLocator(4))
    #ax.xaxis.set_minor_locator(ticker.MaxNLocator(8))
    ax.set_xlim((z[0]-0.00001,z[-1]+0.00001))
    ax.set_ylim((z[0]-0.00001,z[-1]+0.00001))
    #print('z[-1]',z[-1])
    print('x[0],x[10],x[-10],x[-1]',x[0],x[10],x[-10],x[-1])
    print('z[0],z[10],z[-10],z[-1]',z[0],z[10],z[-10],z[-1])
    #ax.set_xlim((-0.1001,0.1001))
    p.set_cmap(plt.cm.RdYlBu)
    #    p.cmap.set_over('k')
    cbar=plt.colorbar(fraction=0.046, pad=0.04, orientation='vertical',format='%.1f')
    cbar.ax.tick_params(labelsize=18) 
    #plt.colorbar(myplot, format='%.0f')
    #plt.show()
    figure = plt.gcf() # get current figure
    figure.set_size_inches(10, 6)
    pylab.title(par,size=30)
    plt.savefig(par +'.png')
